Version 4
SHEET 1 880 680
SYMBOL LowPassFilterSymbol 112 192 R0
SYMATTR InstName LowPassFilter
